[General]
network = Assignment2
sim-time-limit = 100s
cpu-time-limit = 60s
debug-on-errors = true

